pglib-opf-master/sad/pglib_opf_case500_goc__sad.m
%%%%%%%%%%%%%%%%%%%%%%%%%%%%%%%%%%%%%%%%%%%%%%%%%%%%%%%%%%%%%%%%%%%%%%%%%%%
%%%%                                                                  %%%%%
%%%%    IEEE PES Power Grid Library - Optimal Power Flow - v20.07     %%%%%
%%%%          (https://github.com/power-grid-lib/pglib-opf)           %%%%%
%%%%             Benchmark Group - Small Angle Difference             %%%%%
%%%%                         12 - July - 2020                         %%%%%
%%%%                                                                  %%%%%
%%%%%%%%%%%%%%%%%%%%%%%%%%%%%%%%%%%%%%%%%%%%%%%%%%%%%%%%%%%%%%%%%%%%%%%%%%%
function mpc = pglib_opf_case500_goc__sad
mpc.version = '2';
mpc.baseMVA = 100.0;

%% bus data
%	bus_i	type	Pd	Qd	Gs	Bs	area	Vm	Va	baseKV	zone	Vmax	Vmin
mpc.bus = [
	1	 1	 35.618824	 6.5737227	 0.0	 0.0	 1	    1.00000	    0.00000	 138.0	 1	    1.10000	    0.90000;
	2	 1	 98.249974	 27.511604	 0.0	 0.0	 1	    1.00000	    0.00000	 138.0	 1	    1.10000	    0.90000;
	3	 1	 48.647106	 11.129965	 0.0	 0.0	 1	    1.00000	    0.00000	 138.0	 1	    1.10000	    0.90000;
	4	 1	 85.907798	 3.746604	 0.0	 0.0	 1	    1.00000	    0.00000	 138.0	 1	    1.10000	    0.90000;
	5	 1	 84.780273	 14.432042	 0.0	 0.0	 1	    1.00000	    0.00000	 138.0	 1	    1.10000	    0.90000;
	6	 1	 62.478442	 5.521289	 0.0	 0.0	 1	    1.00000	    0.00000	 138.0	 1	    1.10000	    0.90000;
	7	 1	 49.784158	 17.19519	 0.0	 0.0	 1	    1.00000	    0.00000	 138.0	 1	    1.10000	    0.90000;
	8	 1	 64.701608	 7.0712876	 0.0	 0.0	 1	    1.00000	    0.00000	 138.0	 1	    1.10000	    0.90000;
	9	 1	 20.503948	 8.8063929	 0.0	 0.0	 1	    1.00000	    0.00000	 138.0	 1	    1.10000	    0.90000;
	10	 1	 46.413917	 14.1549	 0.0	 0.0	 1	    1.00000	    0.00000	 138.0	 1	    1.10000	    0.90000;
	11	 1	 16.100847	 3.9200655	 0.0	 0.0	 1	    1.00000	    0.00000	 138.0	 1	    1.10000	    0.90000;
	12	 1	 43.588438	 2.8695031	 0.0	 0.0	 1	    1.00000	    0.00000	 138.0	 1	    1.10000	    0.90000;
	13	 1	 61.22114	 10.723958	 0.0	 0.0	 1	    1.00000	    0.00000	 138.0	 1	    1.10000	    0.90000;
	14	 1	 130.84189	 52.410125	 0.0	 0.0	 1	    1.00000	    0.00000	 138.0	 1	    1.10000	    0.90000;
	15	 1	 104.28734	 12.652581	 0.0	 0.0	 1	    1.00000	    0.00000	 138.0	 1	    1.10000	    0.90000;
	16	 1	 27.228169	 9.9052567	 0.0	 0.0	 1	    1.00000	    0.00000	 138.0	 1	    1.10000	    0.90000;
	17	 1	 32.011464	 13.061043	 0.0	 0.0	 1	    1.00000	    0.00000	 138.0	 1	    1.10000	    0.90000;
	18	 1	 119.67057	 30.774143	 0.0	 0.0	 1	    1.00000	    0.00000	 138.0	 1	    1.10000	    0.90000;
	19	 1	 65.320532	 13.431944	 0.0	 0.0	 1	    1.00000	    0.00000	 138.0	 1	    1.10000	    0.90000;
	20	 1	 0.0	 0.0	 0.0	 0.0	 1	    1.00000	    0.00000	 345.0	 1	    1.10000	    0.90000;
	21	 1	 58.218813	 18.966129	 0.0	 0.0	 1	    1.00000	    0.00000	 138.0	 1	    1.10000	    0.90000;
	22	 1	 0.0	 0.0	 0.0	 0.0	 1	    1.00000	    0.00000	 345.0	 1	    1.10000	    0.90000;
	23	 1	 29.018699	 6.2106536	 0.0	 0.0	 1	    1.00000	    0.00000	 138.0	 1	    1.10000	    0.90000;
	24	 1	 54.279955	 33.954042	 0.0	 0.0	 1	    1.00000	    0.00000	 138.0	 1	    1.10000	    0.90000;
	25	 1	 0.0	 0.0	 0.0	 0.0	 1	    1.00000	    0.00000	 345.0	 1	    1.10000	    0.90000;
	26	 1	 0.0	 0.0	 0.0	 0.0	 1	    1.00000	    0.00000	 138.0	 1	    1.10000	    0.90000;
	27	 1	 102.98049	 33.448899	 0.0	 0.0	 1	    1.00000	    0.00000	 345.0	 1	    1.10000	    0.90000;
	28	 1	 61.334173	 20.664905	 0.0	 0.0	 1	    1.00000	    0.00000	 138.0	 1	    1.10000	    0.90000;
	29	 1	 50.934864	 10.690247	 0.0	 0.0	 1	    1.00000	    0.00000	 138.0	 1	    1.10000	    0.90000;
	30	 1	 52.921548	 2.7888621	 0.0	 0.0	 1	    1.00000	    0.00000	 138.0	 1	    1.10000	    0.90000;
	31	 1	 96.443918	 21.502746	 0.0	 0.0	 1	    1.00000	    0.00000	 138.0	 1	    1.10000	    0.90000;
	32	 1	 78.803641	 26.902654	 0.0	 0.0	 1	    1.00000	    0.00000	 138.0	 1	    1.10000	    0.90000;
	33	 1	 173.87396	 98.108359	 0.0	 0.0	 1	    1.00000	    0.00000	 138.0	 1	    1.10000	    0.90000;
	34	 1	 62.111172	 13.143542	 0.0	 0.0	 1	    1.00000	    0.00000	 138.0	 1	    1.10000	    0.90000;
	35	 1	 114.97555	 12.155419	 0.0	 0.0	 1	    1.00000	    0.00000	 138.0	 1	    1.10000	    0.90000;
	36	 1	 135.53799	 51.442293	 0.0	 0.0	 1	    1.00000	    0.00000	 138.0	 1	    1.10000	    0.90000;
	37	 1	 163.47215	 36.679462	 0.0	 0.0	 1	    1.00000	    0.00000	 138.0	 1	    1.10000	    0.90000;
	38	 1	 94.238784	 20.040841	 0.0	 0.0	 1	    1.00000	    0.00000	 138.0	 1	    1.10000	    0.90000;
	39	 1	 133.70834	 50.68181	 0.0	 0.0	 1	    1.00000	    0.00000	 138.0	 1	    1.10000	    0.90000;
	40	 1	 153.11126	 18.774944	 0.0	 0.0	 1	    1.00000	    0.00000	 138.0	 1	    1.10000	    0.90000;
	41	 1	 0.0	 0.0	 0.0	 0.0	 1	    1.00000	    0.00000	 345.0	 1	    1.10000	    0.90000;
	42	 1	 98.133807	 30.734596	 0.0	 0.0	 1	    1.00000	    0.00000	 138.0	 1	    1.10000	    0.90000;
	43	 1	 0.0	 0.0	 0.0	 0.0	 1	    1.00000	    0.00000	 345.0	 1	    1.10000	    0.90000;
	44	 1	 77.880051	 5.0373808	 0.0	 0.0	 1	    1.00000	    0.00000	 138.0	 1	    1.10000	    0.90000;
	45	 1	 302.57835	 18.48031	 0.0	 0.0	 1	    1.00000	    0.00000	 138.0	 1	    1.10000	    0.90000;
	46	 1	 114.29507	 24.00707	 0.0	 0.0	 1	    1.00000	    0.00000	 138.0	 1	    1.10000	    0.90000;
	47	 1	 88.231203	 9.1999478	 0.0	 0.0	 1	    1.00000	    0.00000	 138.0	 1	    1.10000	    0.90000;
	48	 1	 72.71207	 7.1365783	 0.0	 0.0	 1	    1.00000	    0.00000	 138.0	 1	    1.10000	    0.90000;
	49	 1	 127.71185	 15.181496	 0.0	 0.0	 1	    1.00000	    0.00000	 138.0	 1	    1.10000	    0.90000;
	50	 1	 86.944338	 53.880018	 0.0	 0.0	 1	    1.00000	    0.00000	 138.0	 1	    1.10000	    0.90000;
	51	 1	 88.686916	 19.421573	 0.0	 0.0	 1	    1.00000	    0.00000	 138.0	 1	    1.10000	    0.90000;
	52	 1	 0.0	 0.0	 0.0	 0.0	 1	    1.00000	    0.00000	 345.0	 1	    1.10000	    0.90000;
	53	 1	 171.6378	 44.16329	 0.0	 0.0	 1	    1.00000	    0.00000	 138.0	 1	    1.10000	    0.90000;
	54	 1	 0.0	 0.0	 0.0	 0.0	 1	    1.00000	    0.00000	 345.0	 1	    1.10000	    0.90000;
	55	 1	 36.123908	 3.9151884	 0.0	 0.0	 1	    1.00000	    0.00000	 138.0	 1	    1.10000	    0.90000;
	56	 1	 38.577879	 3.9945162	 0.0	 0.0	 1	    1.00000	    0.00000	 138.0	 1	    1.10000	    0.90000;
	57	 1	 19.683228	 6.0811296	 0.0	 0.0	 1	    1.00000	    0.00000	 138.0	 1	    1.10000	    0.90000;
	58	 1	 43.832014	 35.835862	 0.0	 0.0	 1	    1.00000	    0.00000	 138.0	 1	    1.10000	    0.90000;
	59	 1	 42.90744	 17.471748	 0.0	 90.8493130009	 1	    1.00000	    0.00000	 138.0	 1	    1.10000	    0.90000;
	60	 1	 22.945448	 9.1966579	 0.0	 0.0	 1	    1.00000	    0.00000	 138.0	 1	    1.10000	    0.90000;
	61	 1	 44.969939	 9.759103	 0.0	 0.0	 1	    1.00000	    0.00000	 138.0	 1	    1.10000	    0.90000;
	62	 1	 36.437586	 4.474327	 0.0	 0.0	 1	    1.00000	    0.00000	 138.0	 1	    1.10000	    0.90000;
	63	 1	 71.680313	 17.142062	 0.0	 -0.769859349578	 1	    1.00000	    0.00000	 138.0	 1	    1.10000	    0.90000;
	64	 1	 31.844114	 8.0677761	 0.0	 0.0	 1	    1.00000	    0.00000	 138.0	 1	    1.10000	    0.90000;
	65	 1	 63.899352	 9.1908374	 0.0	 0.0	 1	    1.00000	    0.00000	 138.0	 1	    1.10000	    0.90000;
	66	 1	 36.679289	 10.617765	 0.0	 25.1105326653	 1	    1.00000	    0.00000	 138.0	 1	    1.10000	    0.90000;
	67	 1	 28.707733	 7.2100171	 0.0	 0.0	 1	    1.00000	    0.00000	 138.0	 1	    1.10000	    0.90000;
	68	 1	 28.62912	 5.4703638	 0.0	 0.0	 1	    1.00000	    0.00000	 138.0	 1	    1.10000	    0.90000;
	69	 1	 32.067628	 8.0925529	 0.0	 0.0	 1	    1.00000	    0.00000	 138.0	 1	    1.10000	    0.90000;
	70	 1	 39.196158	 3.9775994	 0.0	 0.0	 1	    1.00000	    0.00000	 138.0	 1	    1.10000	    0.90000;
	71	 1	 60.374539	 8.4751114	 0.0	 0.0	 1	    1.00000	    0.00000	 138.0	 1	    1.10000	    0.90000;
	72	 1	 56.946907	 9.9333583	 0.0	 0.0	 1	    1.00000	    0.00000	 138.0	 1	    1.10000	    0.90000;
	73	 1	 70.414725	 10.349797	 0.0	 0.0	 1	    1.00000	    0.00000	 138.0	 1	    1.10000	    0.90000;
	74	 1	 60.758304	 25.733148	 0.0	 0.0	 1	    1.00000	    0.00000	 138.0	 1	    1.10000	    0.90000;
	75	 1	 40.775379	 8.4048883	 0.0	 0.0	 1	    1.00000	    0.00000	 138.0	 1	    1.10000	    0.90000;
	76	 1	 43.071256	 4.3092484	 0.0	 0.0	 1	    1.00000	    0.00000	 138.0	 1	    1.10000	    0.90000;
	77	 1	 57.295706	 18.331089	 0.0	 0.0	 1	    1.00000	    0.00000	 138.0	 1	    1.10000	    0.90000;
	78	 1	 54.007001	 18.028247	 0.0	 0.0	 1	    1.00000	    0.00000	 138.0	 1	    1.10000	    0.90000;
	79	 1	 54.265083	 10.902562	 0.0	 0.0	 1	    1.00000	    0.00000	 138.0	 1	    1.10000	    0.90000;
	80	 1	 46.069768	 21.190099	 0.0	 0.0	 1	    1.00000	    0.00000	 138.0	 1	    1.10000	    0.90000;
	81	 1	 54.507951	 17.693866	 0.0	 0.0	 1	    1.00000	    0.00000	 138.0	 1	    1.10000	    0.90000;
	82	 1	 111.64362	 24.13123	 0.0	 0.0	 1	    1.00000	    0.00000	 138.0	 1	    1.10000	    0.90000;
	83	 1	 101.04494	 24.905649	 0.0	 0.0	 1	    1.00000	    0.00000	 138.0	 1	    1.10000	    0.90000;
	84	 1	 56.110567	 11.571753	 0.0	 0.0	 1	    1.00000	    0.00000	 138.0	 1	    1.10000	    0.90000;
	85	 1	 32.550342	 12.181852	 0.0	 0.0	 1	    1.00000	    0.00000	 138.0	 1	    1.10000	    0.90000;
	86	 1	 59.545233	 10.884686	 0.0	 0.0	 1	    1.00000	    0.00000	 138.0	 1	    1.10000	    0.90000;
	87	 1	 65.981712	 22.630096	 0.0	 0.0	 1	    1.00000	    0.00000	 138.0	 1	    1.10000	    0.90000;
	88	 1	 47.343404	 10.039575	 0.0	 0.0	 1	    1.00000	    0.00000	 138.0	 1	    1.10000	    0.90000;
	89	 1	 74.818328	 17.494879	 0.0	 0.0	 1	    1.00000	    0.00000	 138.0	 1	    1.10000	    0.90000;
	90	 1	 0.0	 0.0	 0.0	 0.0	 1	    1.00000	    0.00000	 345.0	 1	    1.10000	    0.90000;
	91	 1	 0.0	 0.0	 0.0	 0.0	 1	    1.00000	    0.00000	 138.0	 1	    1.10000	    0.90000;
	92	 1	 106.47708	 17.937195	 0.0	 0.0	 1	    1.00000	    0.00000	 345.0	 1	    1.10000	    0.90000;
	93	 1	 40.21293	 5.3027836	 0.0	 0.0	 1	    1.00000	    0.00000	 138.0	 1	    1.10000	    0.90000;
	94	 1	 46.5641	 6.1192811	 0.0	 0.0	 1	    1.00000	    0.00000	 138.0	 1	    1.10000	    0.90000;
	95	 1	 46.010271	 23.126542	 0.0	 0.0	 1	    1.00000	    0.00000	 138.0	 1	    1.10000	    0.90000;
	96	 1	 33.93057	 6.3354304	 0.0	 0.0	 1	    1.00000	    0.00000	 138.0	 1	    1.10000	    0.90000;
	97	 1	 0.0	 0.0	 0.0	 0.0	 1	    1.00000	    0.00000	 345.0	 1	    1.10000	    0.90000;
	98	 1	 0.0	 0.0	 0.0	 0.0	 1	    1.00000	    0.00000	 138.0	 1	    1.10000	    0.90000;
	99	 1	 97.74846	 38.282719	 0.0	 0.0	 1	    1.00000	    0.00000	 345.0	 1	    1.10000	    0.90000;
	100	 1	 38.554521	 12.141577	 0.0	 0.0	 1	    1.00000	    0.00000	 138.0	 1	    1.10000	    0.90000;
	101	 1	 45.161533	 22.880496	 0.0	 0.0	 1	    1.00000	    0.00000	 138.0	 1	    1.10000	    0.90000;
	102	 1	 29.186281	 7.8144916	 0.0	 0.0	 1	    1.00000	    0.00000	 138.0	 1	    1.10000	    0.90000;
	103	 1	 34.30703	 9.7968422	 0.0	 0.0	 1	    1.00000	    0.00000	 138.0	 1	    1.10000	    0.90000;
	104	 1	 24.265991	 5.5635958	 0.0	 0.0	 1	    1.00000	    0.00000	 138.0	 1	    1.10000	    0.90000;
	105	 1	 39.916997	 11.441166	 0.0	 0.0	 1	    1.00000	    0.00000	 138.0	 1	    1.10000	    0.90000;
	106	 1	 0.0	 0.0	 0.0	 0.0	 1	    1.00000	    0.00000	 345.0	 1	    1.10000	    0.90000;
	107	 1	 75.513667	 1.3391346	 0.0	 0.0	 1	    1.00000	    0.00000	 138.0	 1	    1.10000	    0.90000;
	108	 1	 0.0	 0.0	 0.0	 0.0	 1	    1.00000	    0.00000	 345.0	 1	    1.10000	    0.90000;
	109	 1	 49.64731	 13.461957	 0.0	 24.7928450645	 1	    1.00000	    0.00000	 138.0	 1	    1.10000	    0.90000;
	110	 1	 54.65649	 8.3286733	 0.0	 0.0	 1	    1.00000	    0.00000	 138.0	 1	    1.10000	    0.90000;
	111	 1	 93.172043	 20.327059	 0.0	 0.0	 1	    1.00000	    0.00000	 138.0	 1	    1.10000	    0.90000;
	112	 1	 99.668833	 59.004116	 0.0	 0.0	 1	    1.00000	    0.00000	 138.0	 1	    1.10000	    0.90000;
	113	 1	 52.670777	 21.324699	 0.0	 0.0	 1	    1.00000	    0.00000	 138.0	 1	    1.10000	    0.90000;
	114	 1	 40.69928	 12.372287	 0.0	 0.0	 1	    1.00000	    0.00000	 138.0	 1	    1.10000	    0.90000;
	115	 1	 77.71488	 14.88003	 0.0	 0.0	 1	    1.00000	    0.00000	 138.0	 1	    1.10000	    0.90000;
	116	 1	 88.038082	 18.358639	 0.0	 52.8084832569	 1	    1.00000	    0.00000	 138.0	 1	    1.10000	    0.90000;
	117	 1	 68.182582	 7.6680951	 0.0	 0.0	 1	    1.00000	    0.00000	 138.0	 1	    1.10000	    0.90000;
	118	 1	 92.360117	 11.407371	 0.0	 0.0	 1	    1.00000	    0.00000	 138.0	 1	    1.10000	    0.90000;
	119	 1	 0.0	 0.0	 0.0	 0.0	 1	    1.00000	    0.00000	 345.0	 1	    1.10000	    0.90000;
	120	 1	 85.816859	 23.336996	 0.0	 0.0	 1	    1.00000	    0.00000	 138.0	 1	    1.10000	    0.90000;
	121	 1	 0.0	 0.0	 0.0	 0.0	 1	    1.00000	    0.00000	 345.0	 1	    1.10000	    0.90000;
	122	 1	 54.397196	 9.0923423	 0.0	 0.0	 1	    1.00000	    0.00000	 138.0	 1	    1.10000	    0.90000;
	123	 1	 71.147368	 33.993187	 0.0	 0.0	 1	    1.00000	    0.00000	 138.0	 1	    1.10000	    0.90000;
	124	 1	 83.926724	 7.3449827	 0.0	 0.0	 1	    1.00000	    0.00000	 138.0	 1	    1.10000	    0.90000;
	125	 1	 83.155053	 31.193835	 0.0	 0.0	 1	    1.00000	    0.00000	 138.0	 1	    1.10000	    0.90000;
	126	 1	 36.25305	 3.666049	 0.0	 0.0	 1	    1.00000	    0.00000	 138.0	 1	    1.10000	    0.90000;
	127	 1	 29.818337	 16.407276	 0.0	 0.0	 1	    1.00000	    0.00000	 138.0	 1	    1.10000	    0.90000;
	128	 1	 35.782628	 2.4228445	 0.0	 0.0	 1	    1.00000	    0.00000	 138.0	 1	    1.10000	    0.90000;
	129	 1	 51.809298	 15.49727	 0.0	 0.0	 1	    1.00000	    0.00000	 138.0	 1	    1.10000	    0.90000;
	130	 1	 31.251404	 13.832106	 0.0	 0.0	 1	    1.00000	    0.00000	 138.0	 1	    1.10000	    0.90000;
	131	 1	 34.958927	 7.636337	 0.0	 0.0	 1	    1.00000	    0.00000	 138.0	 1	    1.10000	    0.90000;
	132	 1	 52.063316	 19.148102	 0.0	 49.7024353103	 1	    1.00000	    0.00000	 138.0	 1	    1.10000	    0.90000;
	133	 1	 19.636888	 8.9944631	 0.0	 0.0	 1	    1.00000	    0.00000	 138.0	 1	    1.10000	    0.90000;
	134	 1	 38.948873	 4.3593831	 0.0	 0.0	 1	    1.00000	    0.00000	 138.0	 1	    1.10000	    0.90000;
	135	 1	 0.0	 0.0	 0.0	 21.7328832732	 1	    1.00000	    0.00000	 345.0	 1	    1.10000	    0.90000;
	136	 1	 0.0	 0.0	 0.0	 0.0	 1	    1.00000	    0.00000	 138.0	 1	    1.10000	    0.90000;
	137	 1	 51.54586	 9.903541	 0.0	 0.0	 1	    1.00000	    0.00000	 345.0	 1	    1.10000	    0.90000;
	138	 1	 58.676665	 17.430486	 0.0	 94.7667573409	 1	    1.00000	    0.00000	 138.0	 1	    1.10000	    0.90000;
	139	 1	 71.483796	 14.183202	 0.0	 0.0	 1	    1.00000	    0.00000	 138.0	 1	    1.10000	    0.90000;
	140	 1	 72.496609	 22.65969	 0.0	 0.0	 1	    1.00000	    0.00000	 138.0	 1	    1.10000	    0.90000;
	141	 1	 81.951796	 40.60647	 0.0	 0.0	 1	    1.00000	    0.00000	 138.0	 1	    1.10000	    0.90000;
	142	 1	 22.847942	 4.5029059	 0.0	 0.0	 1	    1.00000	    0.00000	 138.0	 1	    1.10000	    0.90000;
	143	 1	 42.563165	 21.293882	 0.0	 0.0	 1	    1.00000	    0.00000	 138.0	 1	    1.10000	    0.90000;
	144	 1	 35.494926	 8.3704275	 0.0	 0.0	 1	    1.00000	    0.00000	 138.0	 1	    1.10000	    0.90000;
	145	 1	 78.917738	 30.005083	 0.0	 0.0	 1	    1.00000	    0.00000	 138.0	 1	    1.10000	    0.90000;
	146	 1	 44.649313	 13.401109	 0.0	 0.0	 1	    1.00000	    0.00000	 138.0	 1	    1.10000	    0.90000;
	147	 1	 65.73686	 21.35948	 0.0	 0.0	 1	    1.00000	    0.00000	 138.0	 1	    1.10000	    0.90000;
	148	 1	 87.010729	 41.888415	 0.0	 0.0	 1	    1.00000	    0.00000	 138.0	 1	    1.10000	    0.90000;
	149	 1	 109.81274	 17.012804	 0.0	 0.0	 1	    1.00000	    0.00000	 138.0	 1	    1.10000	    0.90000;
	150	 1	 169.63527	 52.74781	 0.0	 0.0	 1	    1.00000	    0.00000	 138.0	 1	    1.10000	    0.90000;
	151	 1	 0.0	 0.0	 0.0	 0.0	 1	    1.00000	    0.00000	 345.0	 1	    1.10000	    0.90000;
	152	 1	 0.0	 0.0	 0.0	 0.0	 1	    1.00000	    0.00000	 138.0	 1	    1.10000	    0.90000;
	153	 1	 157.10017	 35.911907	 0.0	 0.0	 1	    1.00000	    0.00000	 345.0	 1	    1.10000	    0.90000;
	154	 1	 53.456581	 10.636111	 0.0	 0.0	 1	    1.00000	    0.00000	 138.0	 1	    1.10000	    0.90000;
	155	 1	 90.361803	 14.921995	 0.0	 0.0	 1	    1.00000	    0.00000	 138.0	 1	    1.10000	    0.90000;
	156	 1	 73.742886	 28.154261	 0.0	 118.046712728	 1	    1.00000	    0.00000	 138.0	 1	    1.10000	    0.90000;
	157	 1	 37.965472	 26.039832	 0.0	 0.0	 1	    1.00000	    0.00000	 138.0	 1	    1.10000	    0.90000;
	158	 1	 99.232414	 16.632599	 0.0	 0.0	 1	    1.00000	    0.00000	 138.0	 1	    1.10000	    0.90000;
	159	 1	 73.406892	 14.440844	 0.0	 0.0	 1	    1.00000	    0.00000	 138.0	 1	    1.10000	    0.90000;
	160	 1	 36.396681	 14.792214	 0.0	 0.0	 1	    1.00000	    0.00000	 138.0	 1	    1.10000	    0.90000;
	161	 1	 28.658666	 5.7080747	 0.0	 0.0	 1	    1.00000	    0.00000	 138.0	 1	    1.10000	    0.90000;
	162	 1	 26.355874	 8.7299695	 0.0	 0.0	 1	    1.00000	    0.00000	 138.0	 1	    1.10000	    0.90000;
	163	 1	 36.962971	 3.8905286	 0.0	 0.0	 1	    1.00000	    0.00000	 138.0	 1	    1.10000	    0.90000;
	164	 1	 39.57328	 5.63349	 0.0	 0.0	 1	    1.00000	    0.00000	 138.0	 1	    1.10000	    0.90000;
	165	 1	 124.00109	 13.81438	 0.0	 0.0	 1	    1.00000	    0.00000	 138.0	 1	    1.10000	    0.90000;
	166	 1	 74.25287	 16.429664	 0.0	 0.0	 1	    1.00000	    0.00000	 138.0	 1	    1.10000	    0.90000;
	167	 1	 40.830164	 10.040794	 0.0	 0.0	 1	    1.00000	    0.00000	 138.0	 1	    1.10000	    0.90000;
	168	 1	 72.906616	 23.714286	 0.0	 34.2518507631	 1	    1.00000	    0.00000	 138.0	 1	    1.10000	    0.90000;
	169	 1	 40.186614	 21.45574	 0.0	 0.0	 1	    1.00000	    0.00000	 138.0	 1	    1.10000	    0.90000;
	170	 1	 99.319971	 23.82538	 0.0	 0.0	 1	    1.00000	    0.00000	 138.0	 1	    1.10000	    0.90000;
	171	 1	 115.38626	 31.220929	 0.0	 0.0	 1	    1.00000	    0.00000	 138.0	 1	    1.10000	    0.90000;
	172	 1	 63.642405	 19.895522	 0.0	 0.0	 1	    1.00000	    0.00000	 138.0	 1	    1.10000	    0.90000;
	173	 1	 33.992307	 4.577169	 0.0	 0.0	 1	    1.00000	    0.00000	 138.0	 1	    1.10000	    0.90000;
	174	 1	 136.21012	 69.077179	 0.0	 0.0	 1	    1.00000	    0.00000	 138.0	 1	    1.10000	    0.90000;
	175	 1	 98.379266	 4.0944475	 0.0	 0.0	 1	    1.00000	    0.00000	 138.0	 1	    1.10000	    0.90000;
	176	 1	 68.807669	 42.520355	 0.0	 273.909700488	 1	    1.00000	    0.00000	 138.0	 1	    1.10000	    0.90000;
	177	 1	 165.22394	 27.018245	 0.0	 0.0	 1	    1.00000	    0.00000	 138.0	 1	    1.10000	    0.90000;
	178	 1	 190.80659	 44.515712	 0.0	 0.0	 1	    1.00000	    0.00000	 138.0	 1	    1.10000	    0.90000;
	179	 1	 75.32883	 20.81102	 0.0	 0.0	 1	    1.00000	    0.00000	 138.0	 1	    1.10000	    0.90000;
	180	 1	 42.215803	 6.3904744	 0.0	 0.0	 1	    1.00000	    0.00000	 138.0	 1	    1.10000	    0.90000;
	181	 1	 50.836476	 8.987556	 0.0	 0.000593243029123	 1	    1.00000	    0.00000	 138.0	 1	    1.10000	    0.90000;
	182	 1	 112.80944	 14.469464	 0.0	 0.0	 1	    1.00000	    0.00000	 138.0	 1	    1.10000	    0.90000;
	183	 1	 93.87775	 19.613303	 0.0	 0.0	 1	    1.00000	    0.00000	 138.0	 1	    1.10000	    0.90000;
	184	 1	 76.916709	 31.744798	 0.0	 0.0	 1	    1.00000	    0.00000	 138.0	 1	    1.10000	    0.90000;
	185	 1	 93.268528	 3.438134	 0.0	 0.0	 1	    1.00000	    0.00000	 138.0	 1	    1.10000	    0.90000;
	186	 1	 92.221114	 21.672864	 0.0	 0.0	 1	    1.00000	    0.00000	 138.0	 1	    1.10000	    0.90000;
	187	 1	 163.8891	 73.256722	 0.0	 0.0	 1	    1.00000	    0.00000	 138.0	 1	    1.10000	    0.90000;
	188	 1	 53.146808	 14.762756	 0.0	 0.0	 1	    1.00000	    0.00000	 138.0	 1	    1.10000	    0.90000;
	189	 1	 39.007399	 3.6469169	 0.0	 0.0	 1	    1.00000	    0.00000	 138.0	 1	    1.10000	    0.90000;
	190	 1	 0.0	 0.0	 0.0	 0.0	 1	    1.00000	    0.00000	 345.0	 1	    1.10000	    0.90000;
	191	 1	 0.0	 0.0	 0.0	 0.0	 1	    1.00000	    0.00000	 138.0	 1	    1.10000	    0.90000;
	192	 1	 131.01594	 31.623052	 0.0	 0.0	 1	    1.00000	    0.00000	 345.0	 1	    1.10000	    0.90000;
	193	 1	 77.65605	 23.362786	 0.0	 0.0	 1	    1.00000	    0.00000	 138.0	 1	    1.10000	    0.90000;
	194	 1	 70.681819	 16.974466	 0.0	 0.0	 1	    1.00000	    0.00000	 138.0	 1	    1.10000	    0.90000;
	195	 1	 80.464995	 14.654426	 0.0	 0.0	 1	    1.00000	    0.00000	 138.0	 1	    1.10000	    0.90000;
	196	 1	 68.678582	 13.070455	 0.0	 0.0	 1	    1.00000	    0.00000	 138.0	 1	    1.10000	    0.90000;
	197	 1	 38.369874	 7.1977718	 0.0	 0.0	 1	    1.00000	    0.00000	 138.0	 1	    1.10000	    0.90000;
	198	 1	 52.283712	 19.787616	 0.0	 0.0	 1	    1.00000	    0.00000	 138.0	 1	    1.10000	    0.90000;
	199	 1	 66.679247	 2.5058577	 0.0	 -17.2164488869	 1	    1.00000	    0.00000	 138.0	 1	    1.10000	    0.90000;
	200	 1	 61.922848	 16.822065	 0.0	 22.9029846928	 1	    1.00000	    0.00000	 138.0	 1	    1.10000	    0.90000;
...
];

%% generator data
%	bus	Pg	Qg	Qmax	Qmin	Vg	mBase	status	Pmax	Pmin
mpc.gen = [
	272	 34.463	 7.856	 18.01	 -2.298	 1.0	 46.9	 1	 46.9	 22.026; 0
	275	 0.0	 0.0	 326.858	 -72.832	 1.0	 888.2	 0	 888.2	 146.11; 0
	276	 643.217	 127.013	 326.858	 -72.832	 1.0	 888.2	 1	 888.2	 398.234; 0
	277	 16.691	 4.1875	 9.6	 -1.225	 1.0	 25.0	 1	 25.0	 8.382; 0
	277	 13.858	 4.1875	 9.6	 -1.225	 1.0	 25.0	 1	 25.0	 2.716; 0
	277	 17.3305	 4.1875	 9.6	 -1.225	 1.0	 25.0	 1	 25.0	 9.661; 0
	277	 16.8255	 4.1875	 9.6	 -1.225	 1.0	 25.0	 1	 25.0	 8.651; 0
	280	 118.674	 31.581	 80.778	 -17.616	 1.0	 158.7	 1	 158.7	 78.648; 0
	281	 0.0	 0.0	 80.778	 -17.616	 1.0	 158.7	 0	 158.7	 68.611; 0
	284	 135.035	 43.2495	 110.623	 -24.124	 1.0	 217.33	 1	 217.333	 52.737; 0
	285	 136.374	 43.2495	 110.623	 -24.124	 1.0	 217.33	 1	 217.333	 55.415; 0
	286	 143.288	 43.2495	 110.623	 -24.124	 1.0	 217.33	 1	 217.333	 69.243; 0
	287	 0.0	 0.0	 110.623	 -24.124	 1.0	 217.33	 0	 217.333	 64.598; 0
	288	 0.0	 0.0	 110.623	 -24.124	 1.0	 217.33	 0	 217.333	 52.424; 0
	289	 122.406	 43.2495	 110.623	 -24.124	 1.0	 217.33	 1	 217.333	 27.479; 0
	292	 0.28	 0.0835	 0.192	 -0.025	 1.0	 0.5	 1	 0.5	 0.06; 0
	292	 0.313	 0.0835	 0.192	 -0.025	 1.0	 0.5	 1	 0.5	 0.126; 0
	294	 0.0	 0.0	 9.162	 -1.998	 1.0	 18.0	 0	 18.0	 5.517; 0
	297	 130.6165	 35.515	 90.84	 -19.81	 1.0	 178.47	 1	 178.467	 82.766; 0
	298	 132.5635	 35.515	 90.84	 -19.81	 1.0	 178.47	 1	 178.467	 86.66; 0
	299	 0.0	 0.0	 90.84	 -19.81	 1.0	 178.47	 0	 178.467	 63.99; 0
	300	 121.061	 35.515	 90.84	 -19.81	 1.0	 178.47	 1	 178.467	 63.655; 0
	301	 0.0	 0.0	 90.84	 -19.81	 1.0	 178.47	 0	 178.467	 54.225; 0
	302	 121.1655	 35.515	 90.84	 -19.81	 1.0	 178.47	 1	 178.467	 63.864; 0
	303	 42.106	 11.306	 25.92	 -3.308	 1.0	 67.5	 1	 67.5	 16.712; 0
	303	 40.629	 11.306	 25.92	 -3.308	 1.0	 67.5	 1	 67.5	 13.758; 0
	306	 0.0	 0.0	 3.262	 -0.854	 1.0	 7.0	 0	 7.0	 1.745; 0
	306	 3.891	 1.204	 3.262	 -0.854	 1.0	 7.0	 1	 7.0	 0.782; 0
	307	 22.668	 5.645	 12.941	 -1.651	 1.0	 33.7	 1	 33.7	 11.636; 0
	307	 24.2095	 5.645	 12.941	 -1.651	 1.0	 33.7	 1	 33.7	 14.719; 0
	307	 0.0	 0.0	 12.941	 -1.651	 1.0	 33.7	 0	 33.7	 6.952; 0
	311	 0.0	 0.0	 428.597	 -95.503	 1.0	 1164.67	 0	 1164.667	 186.084; 0
	312	 809.527	 166.547	 428.597	 -95.503	 1.0	 1164.67	 1	 1164.667	 454.387; 0
	313	 806.4555	 166.547	 428.597	 -95.503	 1.0	 1164.67	 1	 1164.667	 448.244; 0
	316	 237.492	 66.191	 169.302	 -36.92	 1.0	 332.62	 1	 332.617	 142.367; 0
	317	 0.0	 0.0	 169.302	 -36.92	 1.0	 332.62	 0	 332.617	 38.676; 0
	318	 184.7845	 66.191	 169.302	 -36.92	 1.0	 332.62	 1	 332.617	 36.952; 0
	319	 209.1735	 66.191	 169.302	 -36.92	 1.0	 332.62	 1	 332.617	 85.73; 0
	320	 0.0	 0.0	 169.302	 -36.92	 1.0	 332.62	 0	 332.617	 130.581; 0
	321	 0.0	 0.0	 169.302	 -36.92	 1.0	 332.62	 0	 332.617	 84.68; 0
	324	 0.0	 0.0	 61.08	 -13.32	 1.0	 120.0	 0	 120.0	 31.702; 0
	325	 86.33	 23.88	 61.08	 -13.32	 1.0	 120.0	 1	 120.0	 52.66; 0
	326	 88.9155	 23.88	 61.08	 -13.32	 1.0	 120.0	 1	 120.0	 57.831; 0
	327	 0.0	 0.0	 61.08	 -13.32	 1.0	 120.0	 0	 120.0	 55.972; 0
	328	 84.224	 23.88	 61.08	 -13.32	 1.0	 120.0	 1	 120.0	 48.448; 0
	329	 70.3275	 23.88	 61.08	 -13.32	 1.0	 120.0	 1	 120.0	 20.655; 0
	330	 0.6295	 0.172	 0.466	 -0.122	 1.0	 1.0	 1	 1.0	 0.259; 0
	330	 0.5715	 0.172	 0.466	 -0.122	 1.0	 1.0	 1	 1.0	 0.143; 0
	330	 0.674	 0.172	 0.466	 -0.122	 1.0	 1.0	 1	 1.0	 0.348; 0
	330	 0.7045	 0.172	 0.466	 -0.122	 1.0	 1.0	 1	 1.0	 0.409; 0
	334	 42.423	 11.868	 32.154	 -8.418	 1.0	 69.0	 1	 69.0	 15.846; 0
	335	 0.0	 0.0	 32.154	 -8.418	 1.0	 69.0	 0	 69.0	 12.549; 0
	338	 174.097	 46.7355	 119.539	 -26.068	 1.0	 234.85	 1	 234.85	 113.344; 0
	339	 165.63	 46.7355	 119.539	 -26.068	 1.0	 234.85	 1	 234.85	 96.41; 0
	340	 0.0	 0.0	 119.539	 -26.068	 1.0	 234.85	 0	 234.85	 83.983; 0
	341	 164.3445	 46.7355	 119.539	 -26.068	 1.0	 234.85	 1	 234.85	 93.839; 0
	343	 0.0	 0.0	 83.569	 -21.879	 1.0	 179.33	 0	 179.333	 41.662; 0
	344	 108.947	 30.845	 83.569	 -21.879	 1.0	 179.33	 1	 179.333	 38.561; 0
	345	 0.0	 0.0	 83.569	 -21.879	 1.0	 179.33	 0	 179.333	 80.146; 0
	346	 33.0455	 9.6515	 24.687	 -5.384	 1.0	 48.5	 1	 48.5	 17.591; 0
	346	 35.5875	 9.6515	 24.687	 -5.384	 1.0	 48.5	 1	 48.5	 22.675; 0
	347	 0.0	 0.0	 28.8	 -3.675	 1.0	 75.0	 0	 75.0	 36.562; 0
	347	 54.1725	 12.5625	 28.8	 -3.675	 1.0	 75.0	 1	 75.0	 33.345; 0
	347	 52.459	 12.5625	 28.8	 -3.675	 1.0	 75.0	 1	 75.0	 29.918; 0
	350	 17.738	 4.824	 11.059	 -1.411	 1.0	 28.8	 1	 28.8	 6.676; 0
	351	 21.4925	 4.824	 11.059	 -1.411	 1.0	 28.8	 1	 28.8	 14.185; 0
	351	 19.996	 4.824	 11.059	 -1.411	 1.0	 28.8	 1	 28.8	 11.192; 0
	351	 19.417	 4.824	 11.059	 -1.411	 1.0	 28.8	 1	 28.8	 10.034; 0
	354	 71.5885	 21.89	 55.99	 -12.21	 1.0	 110.0	 1	 110.0	 33.177; 0
	356	 22.006	 5.081	 11.648	 -1.486	 1.0	 30.33	 1	 30.333	 13.679; 0
	356	 17.979	 5.081	 11.648	 -1.486	 1.0	 30.33	 1	 30.333	 5.625; 0
	356	 0.0	 0.0	 11.648	 -1.486	 1.0	 30.33	 0	 30.333	 12.388; 0
	357	 13.687	 3.6465	 9.879	 -2.586	 1.0	 21.2	 1	 21.2	 6.174; 0
	358	 36.4625	 8.819	 20.218	 -2.58	 1.0	 52.65	 1	 52.65	 20.275; 0
	358	 38.8985	 8.819	 20.218	 -2.58	 1.0	 52.65	 1	 52.65	 25.147; 0
	358	 36.023	 8.819	 20.218	 -2.58	 1.0	 52.65	 1	 52.65	 19.396; 0
	358	 0.0	 0.0	 20.218	 -2.58	 1.0	 52.65	 0	 52.65	 15.946; 0
	359	 0.0	 0.0	 14.048	 -3.064	 1.0	 27.6	 0	 27.6	 11.587; 0
	359	 20.4465	 5.492	 14.048	 -3.064	 1.0	 27.6	 1	 27.6	 13.293; 0
	362	 392.1035	 121.346	 328.763	 -86.071	 1.0	 705.5	 1	 705.5	 78.707; 0
	363	 391.8455	 121.346	 328.763	 -86.071	 1.0	 705.5	 1	 705.5	 78.191; 0
	364	 0.0	 0.0	 328.763	 -86.071	 1.0	 705.5	 0	 705.5	 259.966; 0
	365	 495.8065	 121.346	 328.763	 -86.071	 1.0	 705.5	 1	 705.5	 286.113; 0
	367	 11.3645	 3.4335	 7.872	 -1.005	 1.0	 20.5	 1	 20.5	 2.229; 0
	368	 14.7755	 3.4335	 7.872	 -1.005	 1.0	 20.5	 1	 20.5	 9.051; 0
	368	 0.0	 0.0	 7.872	 -1.005	 1.0	 20.5	 0	 20.5	 6.32; 0
	369	 0.0	 0.0	 7.872	 -1.005	 1.0	 20.5	 0	 20.5	 9.565; 0
	371	 178.966	 48.8825	 132.437	 -34.672	 1.0	 284.2	 1	 284.2	 73.732; 0
	372	 209.049	 48.8825	 132.437	 -34.672	 1.0	 284.2	 1	 284.2	 133.898; 0
	375	 15.8795	 4.975	 12.725	 -2.775	 1.0	 25.0	 1	 25.0	 6.759; 0
	378	 148.7015	 46.123	 117.973	 -25.727	 1.0	 231.77	 1	 231.775	 65.628; 0
	379	 149.218	 46.123	 117.973	 -25.727	 1.0	 231.77	 1	 231.775	 66.661; 0
	380	 131.406	 46.123	 117.973	 -25.727	 1.0	 231.77	 1	 231.775	 31.037; 0
	381	 172.6965	 46.123	 117.973	 -25.727	 1.0	 231.77	 1	 231.775	 113.618; 0
	382	 0.0	 0.0	 2.842	 -0.363	 1.0	 7.4	 0	 7.4	 3.554; 0
	382	 5.1625	 1.2395	 2.842	 -0.363	 1.0	 7.4	 1	 7.4	 2.925; 0
	382	 4.139	 1.2395	 2.842	 -0.363	 1.0	 7.4	 1	 7.4	 0.878; 0
	382	 4.7965	 1.2395	 2.842	 -0.363	 1.0	 7.4	 1	 7.4	 2.193; 0
	384	 0.0	 0.0	 5.76	 -0.735	 1.0	 15.0	 0	 15.0	 5.179; 0
	384	 11.1675	 2.5125	 5.76	 -0.735	 1.0	 15.0	 1	 15.0	 7.335; 0
	384	 9.073	 2.5125	 5.76	 -0.735	 1.0	 15.0	 1	 15.0	 3.146; 0
	384	 8.689	 2.5125	 5.76	 -0.735	 1.0	 15.0	 1	 15.0	 2.378; 0
	386	 47.404	 11.2785	 25.856	 -3.299	 1.0	 67.33	 1	 67.333	 27.475; 0
	386	 48.736	 11.2785	 25.856	 -3.299	 1.0	 67.33	 1	 67.333	 30.139; 0
	386	 39.1825	 11.2785	 25.856	 -3.299	 1.0	 67.33	 1	 67.333	 11.032; 0
	386	 46.2705	 11.2785	 25.856	 -3.299	 1.0	 67.33	 1	 67.333	 25.208; 0
	386	 39.964	 11.2785	 25.856	 -3.299	 1.0	 67.33	 1	 67.333	 12.595; 0
	386	 0.0	 0.0	 25.856	 -3.299	 1.0	 67.33	 0	 67.333	 7.468; 0
	391	 89.373	 28.158	 72.023	 -15.707	 1.0	 141.5	 1	 141.5	 37.246; 0
	392	 0.0	 0.0	 72.023	 -15.707	 1.0	 141.5	 0	 141.5	 45.823; 0
	393	 0.0	 0.0	 72.023	 -15.707	 1.0	 141.5	 0	 141.5	 59.806; 0
	394	 0.0	 0.0	 72.023	 -15.707	 1.0	 141.5	 0	 141.5	 46.001; 0
	395	 19.08	 4.9415	 11.328	 -1.445	 1.0	 29.5	 1	 29.5	 8.66; 0
	395	 21.751	 4.9415	 11.328	 -1.445	 1.0	 29.5	 1	 29.5	 14.002; 0
	396	 22.052	 4.9415	 11.328	 -1.445	 1.0	 29.5	 1	 29.5	 14.604; 0
	396	 18.506	 4.9415	 11.328	 -1.445	 1.0	 29.5	 1	 29.5	 7.512; 0
	396	 17.8405	 4.9415	 11.328	 -1.445	 1.0	 29.5	 1	 29.5	 6.181; 0
	396	 21.674	 4.9415	 11.328	 -1.445	 1.0	 29.5	 1	 29.5	 13.848; 0
	398	 53.8725	 15.7875	 40.381	 -8.806	 1.0	 79.33	 1	 79.333	 28.412; 0
	398	 53.118	 15.7875	 40.381	 -8.806	 1.0	 79.33	 1	 79.333	 26.903; 0
	398	 48.24	 15.7875	 40.381	 -8.806	 1.0	 79.33	 1	 79.333	 17.147; 0
	398	 48.8045	 15.7875	 40.381	 -8.806	 1.0	 79.33	 1	 79.333	 18.276; 0
	398	 55.47	 15.7875	 40.381	 -8.806	 1.0	 79.33	 1	 79.333	 31.607; 0
	398	 53.4175	 15.7875	 40.381	 -8.806	 1.0	 79.33	 1	 79.333	 27.502; 0
	399	 0.863	 0.251	 0.576	 -0.074	 1.0	 1.5	 1	 1.5	 0.226; 0
	399	 0.0	 0.0	 0.576	 -0.074	 1.0	 1.5	 0	 1.5	 0.589; 0
	401	 0.0	 0.0	 31.176	 -6.799	 1.0	 61.25	 0	 61.25	 22.338; 0
	402	 42.557	 12.1885	 31.176	 -6.799	 1.0	 61.25	 1	 61.25	 23.864; 0
	404	 31.01	 7.1185	 16.32	 -2.083	 1.0	 42.5	 1	 42.5	 19.52; 0
	404	 29.0165	 7.1185	 16.32	 -2.083	 1.0	 42.5	 1	 42.5	 15.533; 0
	404	 27.7565	 7.1185	 16.32	 -2.083	 1.0	 42.5	 1	 42.5	 13.013; 0
	404	 27.5805	 7.1185	 16.32	 -2.083	 1.0	 42.5	 1	 42.5	 12.661; 0
	407	 63.9935	 21.691	 55.481	 -12.099	 1.0	 109.0	 1	 109.0	 18.987; 0
	408	 61.8655	 21.691	 55.481	 -12.099	 1.0	 109.0	 1	 109.0	 14.731; 0
	409	 70.785	 21.691	 55.481	 -12.099	 1.0	 109.0	 1	 109.0	 32.57; 0
	410	 65.653	 21.691	 55.481	 -12.099	 1.0	 109.0	 1	 109.0	 22.306; 0
	411	 61.5715	 21.691	 55.481	 -12.099	 1.0	 109.0	 1	 109.0	 14.143; 0
	412	 66.2415	 21.691	 55.481	 -12.099	 1.0	 109.0	 1	 109.0	 23.483; 0
	413	 32.777	 9.0285	 20.698	 -2.641	 1.0	 53.9	 1	 53.9	 11.654; 0
	416	 0.0	 0.0	 165.029	 -43.205	 1.0	 354.14	 0	 354.14	 67.963; 0
	417	 242.657	 60.912	 165.029	 -43.205	 1.0	 354.14	 1	 354.14	 131.174; 0
	418	 0.0	 0.0	 165.029	 -43.205	 1.0	 354.14	 0	 354.14	 149.645; 0
	419	 205.3915	 60.912	 165.029	 -43.205	 1.0	 354.14	 1	 354.14	 56.643; 0
	420	 211.0205	 60.912	 165.029	 -43.205	 1.0	 354.14	 1	 354.14	 67.901; 0
	421	 0.0	 0.0	 26.213	 -5.717	 1.0	 51.5	 0	 51.5	 24.828; 0
	421	 37.7185	 10.248	 26.213	 -5.717	 1.0	 51.5	 1	 51.5	 23.937; 0
	424	 191.3985	 46.44	 125.82	 -32.94	 1.0	 270.0	 1	 270.0	 112.797; 0
	425	 0.0	 0.0	 125.82	 -32.94	 1.0	 270.0	 0	 270.0	 87.627; 0
	426	 186.408	 46.44	 125.82	 -32.94	 1.0	 270.0	 1	 270.0	 102.816; 0
	427	 184.922	 46.44	 125.82	 -32.94	 1.0	 270.0	 1	 270.0	 99.844; 0
	428	 0.0	 0.0	 125.82	 -32.94	 1.0	 270.0	 0	 270.0	 67.953; 0
	431	 139.595	 44.775	 114.525	 -24.975	 1.0	 225.0	 1	 225.0	 54.19; 0
	432	 166.877	 44.775	 114.525	 -24.975	 1.0	 225.0	 1	 225.0	 108.754; 0
	433	 150.335	 44.775	 114.525	 -24.975	 1.0	 225.0	 1	 225.0	 75.67; 0
	434	 157.032	 44.775	 114.525	 -24.975	 1.0	 225.0	 1	 225.0	 89.064; 0
	437	 0.0	 0.0	 114.83	 -25.042	 1.0	 225.6	 0	 225.6	 110.17; 0
	438	 0.0	 0.0	 114.83	 -25.042	 1.0	 225.6	 0	 225.6	 58.277; 0
	439	 157.882	 44.894	 114.83	 -25.042	 1.0	 225.6	 1	 225.6	 90.164; 0
	440	 128.7	 44.894	 114.83	 -25.042	 1.0	 225.6	 1	 225.6	 31.8; 0
	441	 27.017	 7.1525	 16.397	 -2.092	 1.0	 42.7	 1	 42.7	 11.334; 0
	441	 30.288	 7.1525	 16.397	 -2.092	 1.0	 42.7	 1	 42.7	 17.876; 0
	441	 29.1975	 7.1525	 16.397	 -2.092	 1.0	 42.7	 1	 42.7	 15.695; 0
	443	 0.0	 0.0	 1.527	 -0.333	 1.0	 3.0	 0	 3.0	 1.43; 0
	443	 0.0	 0.0	 1.527	 -0.333	 1.0	 3.0	 0	 3.0	 0.466; 0
	444	 2.0705	 0.597	 1.527	 -0.333	 1.0	 3.0	 1	 3.0	 1.141; 0
	444	 0.0	 0.0	 1.527	 -0.333	 1.0	 3.0	 0	 3.0	 1.295; 0
	448	 206.461	 48.7345	 132.036	 -34.567	 1.0	 283.34	 1	 283.34	 129.582; 0
	449	 210.545	 48.7345	 132.036	 -34.567	 1.0	 283.34	 1	 283.34	 137.75; 0
	450	 198.3295	 48.7345	 132.036	 -34.567	 1.0	 283.34	 1	 283.34	 113.319; 0
	451	 183.774	 48.7345	 132.036	 -34.567	 1.0	 283.34	 1	 283.34	 84.208; 0
	452	 174.746	 48.7345	 132.036	 -34.567	 1.0	 283.34	 1	 283.34	 66.152; 0
	453	 0.0	 0.0	 9.331	 -1.191	 1.0	 24.3	 0	 24.3	 11.536; 0
	453	 17.6065	 4.07	 9.331	 -1.191	 1.0	 24.3	 1	 24.3	 10.913; 0
	453	 16.7525	 4.07	 9.331	 -1.191	 1.0	 24.3	 1	 24.3	 9.205; 0
	456	 131.5465	 37.213	 95.183	 -20.757	 1.0	 187.0	 1	 187.0	 76.093; 0
	457	 116.005	 37.213	 95.183	 -20.757	 1.0	 187.0	 1	 187.0	 45.01; 0
	458	 108.6965	 37.213	 95.183	 -20.757	 1.0	 187.0	 1	 187.0	 30.393; 0
	459	 131.5655	 37.213	 95.183	 -20.757	 1.0	 187.0	 1	 187.0	 76.131; 0
	462	 192.012	 54.579	 139.602	 -30.444	 1.0	 274.27	 1	 274.267	 109.757; 0
	463	 176.318	 54.579	 139.602	 -30.444	 1.0	 274.27	 1	 274.267	 78.369; 0
	464	 0.0	 0.0	 139.602	 -30.444	 1.0	 274.27	 0	 274.267	 58.535; 0
	466	 17.9105	 4.2295	 9.696	 -1.237	 1.0	 25.25	 1	 25.25	 10.571; 0
	466	 15.498	 4.2295	 9.696	 -1.237	 1.0	 25.25	 1	 25.25	 5.746; 0
	470	 372.7975	 96.75	 262.125	 -68.625	 1.0	 562.5	 1	 562.5	 183.095; 0
	471	 326.623	 96.75	 262.125	 -68.625	 1.0	 562.5	 1	 562.5	 90.746; 0
	472	 16.1055	 4.876	 12.471	 -2.719	 1.0	 24.5	 1	 24.5	 7.711; 0
	472	 17.4695	 4.876	 12.471	 -2.719	 1.0	 24.5	 1	 24.5	 10.439; 0
	475	 0.0	 0.0	 11.213	 -1.431	 1.0	 29.2	 0	 29.2	 9.221; 0
	475	 16.712	 4.891	 11.213	 -1.431	 1.0	 29.2	 1	 29.2	 4.224; 0
	476	 21.567	 4.891	 11.213	 -1.431	 1.0	 29.2	 1	 29.2	 13.934; 0
	478	 34.6005	 9.811	 25.094	 -5.472	 1.0	 49.3	 1	 49.3	 19.901; 0
	478	 34.2015	 9.811	 25.094	 -5.472	 1.0	 49.3	 1	 49.3	 19.103; 0
	481	 0.0	 0.0	 187.593	 -49.112	 1.0	 402.56	 0	 402.56	 154.153; 0
	482	 0.0	 0.0	 187.593	 -49.112	 1.0	 402.56	 0	 402.56	 86.185; 0
	483	 295.8225	 69.2405	 187.593	 -49.112	 1.0	 402.56	 1	 402.56	 189.085; 0
	484	 258.232	 69.2405	 187.593	 -49.112	 1.0	 402.56	 1	 402.56	 113.904; 0
	485	 0.0	 0.0	 187.593	 -49.112	 1.0	 402.56	 0	 402.56	 56.892; 0
	486	 16.2365	 4.8295	 11.072	 -1.413	 1.0	 28.83	 1	 28.833	 3.64; 0
	486	 20.6945	 4.8295	 11.072	 -1.413	 1.0	 28.83	 1	 28.833	 12.556; 0
	486	 0.0	 0.0	 11.072	 -1.413	 1.0	 28.83	 0	 28.833	 13.66; 0
...
];

%% generator cost data
%	2	startup	shutdown	n	c(n-1)	...	c0
mpc.gencost = [
	2	 0.0	 0.0	 3	   0.000000	  30.000000	   0.000000;
	2	 0.0	 0.0	 3	   0.001690	   8.281000	   0.000000;
	2	 0.0	 0.0	 3	   0.001098	   9.109000	   0.000000;
	2	 0.0	 0.0	 3	   0.000000	  30.000000	   0.000000;
	2	 0.0	 0.0	 3	   0.000000	  30.000000	   0.000000;
	2	 0.0	 0.0	 3	   0.000000	  30.000000	   0.000000;
	2	 0.0	 0.0	 3	   0.000000	  30.000000	   0.000000;
	2	 0.0	 0.0	 3	   0.010070	  18.500000	  -1.038000;
	2	 0.0	 0.0	 3	   0.013050	  18.520000	  -1.241000;
	2	 0.0	 0.0	 3	   0.019700	  17.870000	  -1.920000;
	2	 0.0	 0.0	 3	   0.016940	  17.820000	  -1.692000;
	2	 0.0	 0.0	 3	   0.019150	  19.410000	  -2.137000;
	2	 0.0	 0.0	 3	   0.017170	  18.520000	  -1.849000;
	2	 0.0	 0.0	 3	   0.023960	  20.120000	  -2.329000;
	2	 0.0	 0.0	 3	   0.021150	  16.500000	  -1.566000;
	2	 0.0	 0.0	 3	   0.000000	  30.000000	   0.000000;
	2	 0.0	 0.0	 3	   0.000000	  30.000000	   0.000000;
	2	 0.0	 0.0	 3	   0.000000	  16.970000	  -1.147000;
	2	 0.0	 0.0	 3	   0.012190	  20.990000	  -1.359000;
	2	 0.0	 0.0	 3	   0.010660	  17.090000	  -1.219000;
	2	 0.0	 0.0	 3	   0.013440	  15.740000	  -1.309000;
	2	 0.0	 0.0	 3	   0.015790	  19.370000	  -1.534000;
	2	 0.0	 0.0	 3	   0.016000	  17.230000	  -1.430000;
	2	 0.0	 0.0	 3	   0.018660	  19.150000	  -1.817000;
	2	 0.0	 0.0	 3	   0.000000	  30.000000	   0.000000;
	2	 0.0	 0.0	 3	   0.000000	  30.000000	   0.000000;
	2	 0.0	 0.0	 3	   0.000000	  30.000000	   0.000000;
	2	 0.0	 0.0	 3	   0.000000	  30.000000	   0.000000;
	2	 0.0	 0.0	 3	   0.000000	  30.000000	   0.000000;
	2	 0.0	 0.0	 3	   0.000000	  30.000000	   0.000000;
	2	 0.0	 0.0	 3	   0.000000	  30.000000	   0.000000;
	2	 0.0	 0.0	 3	   0.001698	   8.351000	   0.000000;
	2	 0.0	 0.0	 3	   0.001218	   9.206000	   0.000000;
	2	 0.0	 0.0	 3	   0.001222	   9.188000	   0.000000;
	2	 0.0	 0.0	 3	   0.014560	  22.580000	  -2.889000;
	2	 0.0	 0.0	 3	   0.019870	  18.430000	  -2.180000;
	2	 0.0	 0.0	 3	   0.025510	  19.590000	  -2.757000;
	2	 0.0	 0.0	 3	   0.021190	  19.740000	  -3.255000;
	2	 0.0	 0.0	 3	   0.013340	  19.170000	  -2.543000;
	2	 0.0	 0.0	 3	   0.016620	  18.320000	  -2.537000;
	2	 0.0	 0.0	 3	   0.017550	  17.290000	   0.000000;
	2	 0.0	 0.0	 3	   0.000000	  18.680000	   0.000000;
	2	 0.0	 0.0	 3	   0.000000	  18.590000	   0.000000;
	2	 0.0	 0.0	 3	   0.000000	  20.010000	   0.000000;
	2	 0.0	 0.0	 3	   0.000000	  17.630000	   0.000000;
	2	 0.0	 0.0	 3	   0.015310	  18.120000	   0.000000;
	2	 0.0	 0.0	 3	   0.000000	  30.000000	   0.000000;
	2	 0.0	 0.0	 3	   0.000000	  30.000000	   0.000000;
	2	 0.0	 0.0	 3	   0.000000	  30.000000	   0.000000;
	2	 0.0	 0.0	 3	   0.000000	  30.000000	   0.000000;
	2	 0.0	 0.0	 3	   0.000000	  34.420000	 -36.100000;
	2	 0.0	 0.0	 3	   0.000000	  31.180000	 -42.120000;
	2	 0.0	 0.0	 3	   0.012560	  20.310000	  -1.884000;
	2	 0.0	 0.0	 3	   0.014320	  20.600000	  -1.960000;
	2	 0.0	 0.0	 3	   0.012620	  16.140000	  -1.616000;
	2	 0.0	 0.0	 3	   0.014230	  18.960000	  -1.933000;
	2	 0.0	 0.0	 3	   0.039500	  32.400000	  -3.114000;
	2	 0.0	 0.0	 3	   0.042360	  30.500000	  -3.223000;
	2	 0.0	 0.0	 3	   0.025470	  31.940000	  -2.792000;
	2	 0.0	 0.0	 3	   0.000000	  15.880000	  -7.369000;
	2	 0.0	 0.0	 3	   0.000000	  16.240000	   0.000000;
	2	 0.0	 0.0	 3	   0.000000	  30.000000	   0.000000;
	2	 0.0	 0.0	 3	   0.000000	  30.000000	   0.000000;
	2	 0.0	 0.0	 3	   0.000000	  30.000000	   0.000000;
	2	 0.0	 0.0	 3	   0.000000	  30.000000	   0.000000;
	2	 0.0	 0.0	 3	   0.000000	  30.000000	   0.000000;
	2	 0.0	 0.0	 3	   0.000000	  30.000000	   0.000000;
	2	 0.0	 0.0	 3	   0.000000	  30.000000	   0.000000;
	2	 0.0	 0.0	 3	   0.000000	  18.250000	 -59.220000;
	2	 0.0	 0.0	 3	   0.000000	  30.000000	   0.000000;
	2	 0.0	 0.0	 3	   0.000000	  30.000000	   0.000000;
	2	 0.0	 0.0	 3	   0.000000	  30.000000	   0.000000;
	2	 0.0	 0.0	 3	   0.000000	  30.000000	   0.000000;
	2	 0.0	 0.0	 3	   0.000000	  30.000000	   0.000000;
	2	 0.0	 0.0	 3	   0.000000	  30.000000	   0.000000;
	2	 0.0	 0.0	 3	   0.000000	  30.000000	   0.000000;
	2	 0.0	 0.0	 3	   0.000000	  30.000000	   0.000000;
	2	 0.0	 0.0	 3	   0.000000	  16.890000	   0.000000;
	2	 0.0	 0.0	 3	   0.000000	  17.240000	   0.000000;
	2	 0.0	 0.0	 3	   0.072380	  32.400000	 -16.600000;
	2	 0.0	 0.0	 3	   0.097060	  41.560000	 -22.210000;
	2	 0.0	 0.0	 3	   0.063720	  60.650000	 -24.900000;
	2	 0.0	 0.0	 3	   0.046190	  57.640000	 -18.860000;
	2	 0.0	 0.0	 3	   0.000000	  30.000000	   0.000000;
	2	 0.0	 0.0	 3	   0.000000	  30.000000	   0.000000;
	2	 0.0	 0.0	 3	   0.000000	  30.000000	   0.000000;
	2	 0.0	 0.0	 3	   0.000000	  30.000000	   0.000000;
	2	 0.0	 0.0	 3	   0.055110	  35.080000	  -7.252000;
	2	 0.0	 0.0	 3	   0.036110	  40.510000	  -6.465000;
	2	 0.0	 0.0	 3	   0.000000	  16.810000	  -2.082000;
	2	 0.0	 0.0	 3	   0.017430	  19.430000	  -1.954000;
	2	 0.0	 0.0	 3	   0.020330	  20.520000	  -2.296000;
	2	 0.0	 0.0	 3	   0.022590	  17.810000	  -1.818000;
	2	 0.0	 0.0	 3	   0.014000	  21.090000	  -2.093000;
	2	 0.0	 0.0	 3	   0.000000	  30.000000	   0.000000;
	2	 0.0	 0.0	 3	   0.000000	  30.000000	   0.000000;
	2	 0.0	 0.0	 3	   0.000000	  30.000000	   0.000000;
	2	 0.0	 0.0	 3	   0.000000	  30.000000	   0.000000;
	2	 0.0	 0.0	 3	   0.000000	  30.000000	   0.000000;
	2	 0.0	 0.0	 3	   0.000000	  30.000000	   0.000000;
	2	 0.0	 0.0	 3	   0.000000	  30.000000	   0.000000;
	2	 0.0	 0.0	 3	   0.000000	  30.000000	   0.000000;
	2	 0.0	 0.0	 3	   0.000000	  30.000000	   0.000000;
	2	 0.0	 0.0	 3	   0.000000	  30.000000	   0.000000;
	2	 0.0	 0.0	 3	   0.000000	  30.000000	   0.000000;
	2	 0.0	 0.0	 3	   0.000000	  30.000000	   0.000000;
	2	 0.0	 0.0	 3	   0.000000	  30.000000	   0.000000;
	2	 0.0	 0.0	 3	   0.000000	  30.000000	   0.000000;
	2	 0.0	 0.0	 3	   0.016320	  15.850000	  -1.077000;
	2	 0.0	 0.0	 3	   0.014350	  17.200000	  -1.051000;
	2	 0.0	 0.0	 3	   0.013150	  16.850000	  -1.112000;
	2	 0.0	 0.0	 3	   0.015430	  18.810000	  -1.131000;
	2	 0.0	 0.0	 3	   0.000000	  30.000000	   0.000000;
	2	 0.0	 0.0	 3	   0.000000	  30.000000	   0.000000;
	2	 0.0	 0.0	 3	   0.000000	  30.000000	   0.000000;
	2	 0.0	 0.0	 3	   0.000000	  30.000000	   0.000000;
	2	 0.0	 0.0	 3	   0.000000	  30.000000	   0.000000;
	2	 0.0	 0.0	 3	   0.000000	  30.000000	   0.000000;
	2	 0.0	 0.0	 3	   0.000000	  18.600000	 -22.780000;
	2	 0.0	 0.0	 3	   0.000000	  16.850000	 -20.940000;
	2	 0.0	 0.0	 3	   0.000000	  17.230000	 -18.240000;
	2	 0.0	 0.0	 3	   0.000000	  18.160000	 -21.240000;
	2	 0.0	 0.0	 3	   0.000000	  17.980000	   0.000000;
	2	 0.0	 0.0	 3	   0.000000	  18.590000	 -25.380000;
	2	 0.0	 0.0	 3	   0.000000	  30.000000	   0.000000;
	2	 0.0	 0.0	 3	   0.000000	  30.000000	   0.000000;
	2	 0.0	 0.0	 3	   0.000000	  17.740000	 -13.650000;
	2	 0.0	 0.0	 3	   0.000000	  14.550000	   0.000000;
	2	 0.0	 0.0	 3	   0.000000	  30.000000	   0.000000;
	2	 0.0	 0.0	 3	   0.000000	  30.000000	   0.000000;
	2	 0.0	 0.0	 3	   0.000000	  30.000000	   0.000000;
	2	 0.0	 0.0	 3	   0.000000	  30.000000	   0.000000;
	2	 0.0	 0.0	 3	   0.000000	  17.440000	 -39.950000;
	2	 0.0	 0.0	 3	   0.000000	  17.680000	 -39.850000;
	2	 0.0	 0.0	 3	   0.000000	  16.670000	 -51.690000;
	2	 0.0	 0.0	 3	   0.000000	  17.290000	 -40.040000;
	2	 0.0	 0.0	 3	   0.000000	  15.920000	 -38.620000;
	2	 0.0	 0.0	 3	   0.017820	  18.550000	   0.000000;
	2	 0.0	 0.0	 3	   0.000000	  30.000000	   0.000000;
	2	 0.0	 0.0	 3	   0.070060	  36.300000	  -9.988000;
	2	 0.0	 0.0	 3	   0.043610	  36.450000	  -8.580000;
	2	 0.0	 0.0	 3	   0.048840	  45.530000	 -10.240000;
	2	 0.0	 0.0	 3	   0.077230	  35.220000	 -10.190000;
	2	 0.0	 0.0	 3	   0.058280	  32.240000	  -8.310000;
	2	 0.0	 0.0	 3	   0.000000	  17.320000	   0.000000;
	2	 0.0	 0.0	 3	   0.000000	  14.960000	   0.000000;
	2	 0.0	 0.0	 3	   0.032100	  35.550000	  -5.101000;
	2	 0.0	 0.0	 3	   0.045440	  32.600000	  -6.358000;
	2	 0.0	 0.0	 3	   0.049280	  38.760000	  -7.503000;
	2	 0.0	 0.0	 3	   0.041140	  33.740000	  -6.166000;
	2	 0.0	 0.0	 3	   0.055040	  35.860000	  -6.780000;
	2	 0.0	 0.0	 3	   0.023480	  19.960000	  -2.360000;
	2	 0.0	 0.0	 3	   0.010090	  18.250000	  -1.451000;
	2	 0.0	 0.0	 3	   0.016250	  16.860000	  -1.930000;
	2	 0.0	 0.0	 3	   0.015420	  20.590000	  -1.999000;
	2	 0.0	 0.0	 3	   0.011980	  20.420000	  -1.740000;
	2	 0.0	 0.0	 3	   0.024120	  21.750000	  -2.514000;
	2	 0.0	 0.0	 3	   0.017860	  20.600000	  -2.333000;
	2	 0.0	 0.0	 3	   0.026270	  19.180000	  -2.102000;
	2	 0.0	 0.0	 3	   0.000000	  30.000000	   0.000000;
	2	 0.0	 0.0	 3	   0.000000	  30.000000	   0.000000;
	2	 0.0	 0.0	 3	   0.000000	  30.000000	   0.000000;
	2	 0.0	 0.0	 3	   0.000000	  15.730000	   0.000000;
	2	 0.0	 0.0	 3	   0.000000	  17.870000	   0.000000;
	2	 0.0	 0.0	 3	   0.000000	  16.440000	   0.000000;
	2	 0.0	 0.0	 3	   0.000000	  14.920000	   0.000000;
	2	 0.0	 0.0	 3	   0.035950	  38.030000	  -6.309000;
	2	 0.0	 0.0	 3	   0.033400	  42.340000	  -6.071000;
	2	 0.0	 0.0	 3	   0.035450	  36.390000	  -5.768000;
	2	 0.0	 0.0	 3	   0.053580	  36.260000	  -7.519000;
	2	 0.0	 0.0	 3	   0.050340	  31.340000	  -6.279000;
	2	 0.0	 0.0	 3	   0.000000	  30.000000	   0.000000;
	2	 0.0	 0.0	 3	   0.000000	  30.000000	   0.000000;
	2	 0.0	 0.0	 3	   0.000000	  30.000000	   0.000000;
	2	 0.0	 0.0	 3	   0.013290	  15.420000	  -1.455000;
	2	 0.0	 0.0	 3	   0.021090	  18.780000	  -1.762000;
	2	 0.0	 0.0	 3	   0.019650	  16.670000	  -1.379000;
	2	 0.0	 0.0	 3	   0.013650	  18.540000	  -1.494000;
	2	 0.0	 0.0	 3	   0.015310	  21.780000	  -2.414000;
	2	 0.0	 0.0	 3	   0.019080	  17.540000	  -2.541000;
	2	 0.0	 0.0	 3	   0.021910	  19.740000	  -2.536000;
	2	 0.0	 0.0	 3	   0.000000	  30.000000	   0.000000;
	2	 0.0	 0.0	 3	   0.000000	  30.000000	   0.000000;
	2	 0.0	 0.0	 3	   0.058190	  47.180000	 -16.980000;
	2	 0.0	 0.0	 3	   0.080400	  36.880000	 -16.910000;
	2	 0.0	 0.0	 3	   0.000000	  14.250000	  -1.439000;
	2	 0.0	 0.0	 3	   0.000000	  14.750000	   0.000000;
	2	 0.0	 0.0	 3	   0.000000	  30.000000	   0.000000;
	2	 0.0	 0.0	 3	   0.000000	  30.000000	   0.000000;
	2	 0.0	 0.0	 3	   0.000000	  30.000000	   0.000000;
	2	 0.0	 0.0	 3	   0.000000	  17.320000	   0.000000;
	2	 0.0	 0.0	 3	   0.000000	  14.830000	   0.000000;
	2	 0.0	 0.0	 3	   0.056050	  44.510000	 -12.760000;
	2	 0.0	 0.0	 3	   0.057670	  31.870000	  -9.818000;
	2	 0.0	 0.0	 3	   0.057900	  64.550000	 -14.660000;
	2	 0.0	 0.0	 3	   0.075150	  45.630000	 -14.620000;
	2	 0.0	 0.0	 3	   0.079380	  34.570000	 -11.340000;
	2	 0.0	 0.0	 3	   0.000000	  30.000000	   0.000000;
	2	 0.0	 0.0	 3	   0.000000	  30.000000	   0.000000;
	2	 0.0	 0.0	 3	   0.000000	  30.000000	   0.000000;
...
];

%% branch data
%	fbus	tbus	r	x	b	rateA	rateB	rateC	ratio	angle	status	angmin	angmax
mpc.branch = [
	2	 212	 0.0154525	 0.0792528	 0.0268017	 239.94	 239.94	 239.94	 0.0	 0.0	 1	 -5.51823462005	 5.51823462005;
	3	 53	 0.00358046	 0.0258456	 0.0131628	 260.03	 260.03	 260.03	 0.0	 0.0	 1	 -5.51823462005	 5.51823462005;
	3	 53	 0.00358046	 0.0258456	 0.0131628	 260.03	 260.03	 260.03	 0.0	 0.0	 1	 -5.51823462005	 5.51823462005;
	3	 213	 0.00319977	 0.0219502	 0.0125158	 256.59	 256.59	 256.59	 0.0	 0.0	 1	 -5.51823462005	 5.51823462005;
	4	 5	 0.00696197	 0.0360534	 0.0111497	 218.77	 218.77	 218.77	 0.0	 0.0	 1	 -5.51823462005	 5.51823462005;
	4	 331	 0.00775811	 0.0380507	 0.0134745	 227.23	 227.23	 227.23	 0.0	 0.0	 1	 -5.51823462005	 5.51823462005;
	5	 331	 0.00487853	 0.02675	 0.00815727	 198.63	 198.63	 198.63	 0.0	 0.0	 1	 -5.51823462005	 5.51823462005;
	5	 351	 0.0124676	 0.0654224	 0.0163807	 269.59	 269.59	 269.59	 0.0	 0.0	 1	 -5.51823462005	 5.51823462005;
	6	 331	 0.0051151	 0.0236629	 0.0391647	 336.94	 336.94	 336.94	 0.0	 0.0	 1	 -5.51823462005	 5.51823462005;
	8	 461	 0.00268087	 0.0132507	 0.00588479	 232.73	 232.73	 232.73	 0.0	 0.0	 1	 -5.51823462005	 5.51823462005;
	10	 11	 0.0133436	 0.0919039	 0.0115271	 212.51	 212.51	 212.51	 0.0	 0.0	 1	 -5.51823462005	 5.51823462005;
	10	 406	 0.00631471	 0.0440302	 0.0307124	 216.36	 216.36	 216.36	 0.0	 0.0	 1	 -5.51823462005	 5.51823462005;
	11	 58	 0.0286556	 0.128792	 0.0377904	 204.21	 204.21	 204.21	 0.0	 0.0	 1	 -5.51823462005	 5.51823462005;
	12	 10	 0.00363287	 0.0200568	 0.0589258	 206.37	 206.37	 206.37	 0.0	 0.0	 1	 -5.51823462005	 5.51823462005;
	12	 406	 0.00340925	 0.0206369	 0.0061444	 233.32	 233.32	 233.32	 0.0	 0.0	 1	 -5.51823462005	 5.51823462005;
	13	 17	 0.0100597	 0.0575367	 0.0312509	 227.86	 227.86	 227.86	 0.0	 0.0	 1	 -5.51823462005	 5.51823462005;
	14	 156	 0.00832308	 0.0444584	 0.0151703	 264.27	 264.27	 264.27	 0.0	 0.0	 1	 -5.51823462005	 5.51823462005;
	15	 55	 0.0113961	 0.0625895	 0.0161825	 218.52	 218.52	 218.52	 0.0	 0.0	 1	 -5.51823462005	 5.51823462005;
	16	 162	 0.012951	 0.0665246	 0.0176437	 224.35	 224.35	 224.35	 0.0	 0.0	 1	 -5.51823462005	 5.51823462005;
	16	 304	 0.00759675	 0.0410247	 0.0264718	 236.54	 236.54	 236.54	 0.0	 0.0	 1	 -5.51823462005	 5.51823462005;
	18	 19	 0.0106007	 0.0397642	 0.0085879	 245.27	 245.27	 245.27	 0.0	 0.0	 1	 -5.51823462005	 5.51823462005;
	18	 81	 0.00978753	 0.0448943	 0.023169	 223.47	 223.47	 223.47	 0.0	 0.0	 1	 -5.51823462005	 5.51823462005;
	18	 310	 0.004373	 0.0260086	 0.0242791	 277.5	 277.5	 277.5	 0.0	 0.0	 1	 -5.51823462005	 5.51823462005;
	18	 310	 0.004373	 0.0260086	 0.0242791	 277.5	 277.5	 277.5	 0.0	 0.0	 1	 -5.51823462005	 5.51823462005;
	19	 141	 0.00579211	 0.0290206	 0.0189553	 251.0	 251.0	 251.0	 0.0	 0.0	 1	 -5.51823462005	 5.51823462005;
	19	 436	 0.00397383	 0.0271653	 0.0337435	 212.6	 212.6	 212.6	 0.0	 0.0	 1	 -5.51823462005	 5.51823462005;
	20	 22	 0.000207968	 0.00111847	 0.0	 99999.0	 99999.0	 99999.0	 0.0	 0.0	 1	 -5.51823462005	 5.51823462005;
	21	 23	 0.00250938	 0.0172465	 0.0313608	 248.08	 248.08	 248.08	 0.0	 0.0	 1	 -5.51823462005	 5.51823462005;
	22	 295	 0.0015308	 0.016473	 0.364525	 1075.02	 1075.02	 1075.02	 0.0	 0.0	 1	 -5.51823462005	 5.51823462005;
	22	 405	 0.002026	 0.028747	 1.00897	 1001.46	 1001.46	 1001.46	 0.0	 0.0	 1	 -5.51823462005	 5.51823462005;
	23	 179	 0.008727	 0.054891	 0.034891	 236.33	 236.33	 236.33	 0.0	 0.0	 1	 -5.51823462005	 5.51823462005;
	24	 4	 0.00353554	 0.0227525	 0.0272812	 241.53	 241.53	 241.53	 0.0	 0.0	 1	 -5.51823462005	 5.51823462005;
	24	 56	 0.00957472	 0.0499942	 0.0131242	 244.03	 244.03	 244.03	 0.0	 0.0	 1	 -5.51823462005	 5.51823462005;
	25	 27	 0.000257042	 0.00119754	 0.0	 99999.0	 99999.0	 99999.0	 0.0	 0.0	 1	 -5.51823462005	 5.51823462005;
	25	 314	 0.00158469	 0.0214403	 0.275456	 1151.39	 1151.39	 1151.39	 0.0	 0.0	 1	 -5.51823462005	 5.51823462005;
	28	 29	 0.0121765	 0.0608641	 0.0130017	 207.91	 207.91	 207.91	 0.0	 0.0	 1	 -5.51823462005	 5.51823462005;
	28	 30	 0.00432531	 0.0200998	 0.00802657	 230.9	 230.9	 230.9	 0.0	 0.0	 1	 -5.51823462005	 5.51823462005;
	29	 356	 0.00799791	 0.0387782	 0.0352203	 188.9	 188.9	 188.9	 0.0	 0.0	 1	 -5.51823462005	 5.51823462005;
	30	 26	 0.00666488	 0.0320152	 0.0220243	 304.68	 304.68	 304.68	 0.0	 0.0	 1	 -5.51823462005	 5.51823462005;
	31	 228	 0.008946	 0.057044	 0.025829	 280.0	 280.0	 280.0	 0.0	 0.0	 1	 -5.51823462005	 5.51823462005;
	31	 296	 0.00518286	 0.0326049	 0.0584572	 358.79	 358.79	 358.79	 0.0	 0.0	 1	 -5.51823462005	 5.51823462005;
	31	 415	 0.0113363	 0.0554702	 0.0432148	 231.46	 231.46	 231.46	 0.0	 0.0	 1	 -5.51823462005	 5.51823462005;
	33	 32	 0.00681448	 0.0338755	 0.0131701	 196.59	 196.59	 196.59	 0.0	 0.0	 1	 -5.51823462005	 5.51823462005;
	34	 33	 0.00341126	 0.0247052	 0.0295283	 270.99	 270.99	 270.99	 0.0	 0.0	 1	 -5.51823462005	 5.51823462005;
	34	 33	 0.00341126	 0.0247052	 0.0295283	 270.99	 270.99	 270.99	 0.0	 0.0	 1	 -5.51823462005	 5.51823462005;
	35	 40	 0.00293506	 0.0185201	 0.00990083	 228.32	 228.32	 228.32	 0.0	 0.0	 1	 -5.51823462005	 5.51823462005;
	35	 42	 0.00449505	 0.0326042	 0.0129473	 276.08	 276.08	 276.08	 0.0	 0.0	 1	 -5.51823462005	 5.51823462005;
	36	 2	 0.00289863	 0.0167658	 0.0148842	 188.66	 188.66	 188.66	 0.0	 0.0	 1	 -5.51823462005	 5.51823462005;
	36	 33	 0.00284038	 0.0206656	 0.011617	 213.45	 213.45	 213.45	 0.0	 0.0	 0	 -5.51823462005	 5.51823462005;
	37	 35	 0.00780774	 0.0366615	 0.0156035	 218.76	 218.76	 218.76	 0.0	 0.0	 1	 -5.51823462005	 5.51823462005;
	37	 44	 0.00830767	 0.0554788	 0.0311844	 200.99	 200.99	 200.99	 0.0	 0.0	 1	 -5.51823462005	 5.51823462005;
	38	 39	 0.00316109	 0.0157664	 0.019275	 252.83	 252.83	 252.83	 0.0	 0.0	 1	 -5.51823462005	 5.51823462005;
	38	 49	 0.0106902	 0.0689767	 0.0297214	 204.2	 204.2	 204.2	 0.0	 0.0	 1	 -5.51823462005	 5.51823462005;
	39	 35	 0.00384653	 0.022595	 0.0115165	 259.81	 259.81	 259.81	 0.0	 0.0	 1	 -5.51823462005	 5.51823462005;
	39	 35	 0.00384653	 0.022595	 0.0115165	 259.81	 259.81	 259.81	 0.0	 0.0	 1	 -5.51823462005	 5.51823462005;
	39	 361	 0.00410223	 0.0323982	 0.0223687	 296.76	 296.76	 296.76	 0.0	 0.0	 1	 -5.51823462005	 5.51823462005;
	39	 361	 0.00410223	 0.0323982	 0.0223687	 296.76	 296.76	 296.76	 0.0	 0.0	 1	 -5.51823462005	 5.51823462005;
	39	 361	 0.00410223	 0.0323982	 0.0223687	 296.76	 296.76	 296.76	 0.0	 0.0	 0	 -5.51823462005	 5.51823462005;
	41	 43	 0.000233031	 0.00104503	 0.0	 99999.0	 99999.0	 99999.0	 0.0	 0.0	 1	 -5.51823462005	 5.51823462005;
	42	 40	 0.00435644	 0.0248836	 0.0126137	 308.21	 308.21	 308.21	 0.0	 0.0	 1	 -5.51823462005	 5.51823462005;
	43	 54	 0.00111725	 0.0133249	 0.292213	 1210.87	 1210.87	 1210.87	 0.0	 0.0	 1	 -5.51823462005	 5.51823462005;
	43	 498	 0.00161178	 0.0198636	 0.286039	 1210.03	 1210.03	 1210.03	 0.0	 0.0	 1	 -5.51823462005	 5.51823462005;
	44	 42	 0.00483059	 0.022229	 0.00975406	 240.21	 240.21	 240.21	 0.0	 0.0	 1	 -5.51823462005	 5.51823462005;
	45	 36	 0.00469767	 0.0323288	 0.00954514	 196.67	 196.67	 196.67	 0.0	 0.0	 1	 -5.51823462005	 5.51823462005;
	45	 37	 0.00411194	 0.0226471	 0.0067485	 223.09	 223.09	 223.09	 0.0	 0.0	 1	 -5.51823462005	 5.51823462005;
	46	 45	 0.0023403	 0.0128024	 0.0123531	 401.85	 401.85	 401.85	 0.0	 0.0	 1	 -5.51823462005	 5.51823462005;
	46	 50	 0.00351582	 0.0151322	 0.0225659	 213.18	 213.18	 213.18	 0.0	 0.0	 1	 -5.51823462005	 5.51823462005;
	46	 51	 0.00390017	 0.0201794	 0.0263679	 290.75	 290.75	 290.75	 0.0	 0.0	 1	 -5.51823462005	 5.51823462005;
	46	 51	 0.00390017	 0.0201794	 0.0263679	 290.75	 290.75	 290.75	 0.0	 0.0	 1	 -5.51823462005	 5.51823462005;
	46	 214	 0.00565635	 0.0285577	 0.0458282	 324.34	 324.34	 324.34	 0.0	 0.0	 1	 -5.51823462005	 5.51823462005;
	47	 40	 0.00542345	 0.0298445	 0.00973297	 209.65	 209.65	 209.65	 0.0	 0.0	 1	 -5.51823462005	 5.51823462005;
	48	 50	 0.00493315	 0.0197057	 0.0266381	 231.0	 231.0	 231.0	 0.0	 0.0	 1	 -5.51823462005	 5.51823462005;
	48	 480	 0.0141266	 0.063385	 0.013796	 270.01	 270.01	 270.01	 0.0	 0.0	 1	 -5.51823462005	 5.51823462005;
	49	 47	 0.00274605	 0.0168842	 0.011861	 210.29	 210.29	 210.29	 0.0	 0.0	 1	 -5.51823462005	 5.51823462005;
	50	 49	 0.00420333	 0.0189576	 0.00848235	 263.28	 263.28	 263.28	 0.0	 0.0	 1	 -5.51823462005	 5.51823462005;
	50	 51	 0.00306979	 0.0198041	 0.0129611	 299.51	 299.51	 299.51	 0.0	 0.0	 1	 -5.51823462005	 5.51823462005;
	51	 48	 0.00285314	 0.0207706	 0.0111933	 206.03	 206.03	 206.03	 0.0	 0.0	 1	 -5.51823462005	 5.51823462005;
	51	 70	 0.00927047	 0.0420854	 0.0202396	 302.02	 302.02	 302.02	 0.0	 0.0	 1	 -5.51823462005	 5.51823462005;
	51	 357	 0.00606199	 0.0375019	 0.0462067	 281.97	 281.97	 281.97	 0.0	 0.0	 1	 -5.51823462005	 5.51823462005;
	51	 357	 0.00606199	 0.0375019	 0.0462067	 281.97	 281.97	 281.97	 0.0	 0.0	 1	 -5.51823462005	 5.51823462005;
	51	 357	 0.00606199	 0.0375019	 0.0462067	 281.97	 281.97	 281.97	 0.0	 0.0	 1	 -5.51823462005	 5.51823462005;
	52	 54	 0.000209023	 0.00101092	 0.0	 99999.0	 99999.0	 99999.0	 0.0	 0.0	 1	 -5.51823462005	 5.51823462005;
	53	 32	 0.00540244	 0.030335	 0.00829098	 226.77	 226.77	 226.77	 0.0	 0.0	 1	 -5.51823462005	 5.51823462005;
	53	 36	 0.00511899	 0.0318872	 0.0170703	 230.21	 230.21	 230.21	 0.0	 0.0	 1	 -5.51823462005	 5.51823462005;
	53	 45	 0.00448796	 0.0251172	 0.0179586	 273.78	 273.78	 273.78	 0.0	 0.0	 1	 -5.51823462005	 5.51823462005;
	53	 45	 0.00448796	 0.0251172	 0.0179586	 273.78	 273.78	 273.78	 0.0	 0.0	 1	 -5.51823462005	 5.51823462005;
	55	 72	 0.00255071	 0.0145816	 0.0529998	 202.42	 202.42	 202.42	 0.0	 0.0	 1	 -5.51823462005	 5.51823462005;
	57	 66	 0.012542	 0.0731735	 0.0174808	 188.33	 188.33	 188.33	 0.0	 0.0	 1	 -5.51823462005	 5.51823462005;
	57	 161	 0.0318774	 0.176516	 0.0907922	 198.2	 198.2	 198.2	 0.0	 0.0	 1	 -5.51823462005	 5.51823462005;
	57	 255	 0.00718102	 0.0390624	 0.0537424	 300.0	 300.0	 300.0	 0.0	 0.0	 1	 -5.51823462005	 5.51823462005;
	58	 59	 0.00838826	 0.044004	 0.0215912	 282.33	 282.33	 282.33	 0.0	 0.0	 1	 -5.51823462005	 5.51823462005;
	59	 179	 0.0199692	 0.12545	 0.0343653	 209.05	 209.05	 209.05	 0.0	 0.0	 1	 -5.51823462005	 5.51823462005;
	60	 211	 0.0107783	 0.0696549	 0.0231844	 234.89	 234.89	 234.89	 0.0	 0.0	 1	 -5.51823462005	 5.51823462005;
	61	 469	 0.00533577	 0.0355112	 0.0133687	 209.34	 209.34	 209.34	 0.0	 0.0	 1	 -5.51823462005	 5.51823462005;
	62	 169	 0.0229231	 0.141757	 0.0331327	 284.38	 284.38	 284.38	 0.0	 0.0	 1	 -5.51823462005	 5.51823462005;
	62	 245	 0.0171145	 0.104922	 0.0526062	 205.64	 205.64	 205.64	 0.0	 0.0	 1	 -5.51823462005	 5.51823462005;
	62	 271	 0.0225085	 0.129199	 0.0416435	 215.63	 215.63	 215.63	 0.0	 0.0	 1	 -5.51823462005	 5.51823462005;
	63	 396	 0.00684768	 0.035438	 0.0555983	 276.04	 276.04	 276.04	 0.0	 0.0	 1	 -5.51823462005	 5.51823462005;
	63	 396	 0.00684768	 0.035438	 0.0555983	 318.9	 318.9	 318.9	 0.0	 0.0	 1	 -5.51823462005	 5.51823462005;
	64	 308	 0.0045429	 0.0249656	 0.0222506	 204.94	 204.94	 204.94	 0.0	 0.0	 1	 -5.51823462005	 5.51823462005;
	65	 118	 0.00682259	 0.0489818	 0.0291852	 187.98	 187.98	 187.98	 0.0	 0.0	 1	 -5.51823462005	 5.51823462005;
	65	 122	 0.0114556	 0.0789436	 0.0221672	 223.13	 223.13	 223.13	 0.0	 0.0	 1	 -5.51823462005	 5.51823462005;
	66	 180	 0.013631	 0.0750424	 0.0174066	 212.27	 212.27	 212.27	 0.0	 0.0	 1	 -5.51823462005	 5.51823462005;
	67	 415	 0.0105199	 0.0574565	 0.0373877	 237.15	 237.15	 237.15	 0.0	 0.0	 1	 -5.51823462005	 5.51823462005;
	68	 159	 0.00605992	 0.0375113	 0.0255276	 229.73	 229.73	 229.73	 0.0	 0.0	 1	 -5.51823462005	 5.51823462005;
	68	 377	 0.00417649	 0.0277901	 0.0160845	 244.32	 244.32	 244.32	 0.0	 0.0	 1	 -5.51823462005	 5.51823462005;
	69	 1	 0.0263485	 0.135443	 0.0504152	 230.13	 230.13	 230.13	 0.0	 0.0	 1	 -5.51823462005	 5.51823462005;
	69	 263	 0.0303392	 0.0797752	 0.029101	 203.37	 203.37	 203.37	 0.0	 0.0	 1	 -5.51823462005	 5.51823462005;
	70	 357	 0.00846265	 0.0516422	 0.0102433	 188.28	 188.28	 188.28	 0.0	 0.0	 1	 -5.51823462005	 5.51823462005;
	70	 480	 0.00434341	 0.0202377	 0.00802619	 410.92	 410.92	 410.92	 0.0	 0.0	 1	 -5.51823462005	 5.51823462005;
	71	 6	 0.0078159	 0.0497093	 0.0146629	 266.45	 266.45	 266.45	 0.0	 0.0	 1	 -5.51823462005	 5.51823462005;
	71	 236	 0.00800132	 0.0463031	 0.04138	 201.33	 201.33	 201.33	 0.0	 0.0	 1	 -5.51823462005	 5.51823462005;
	72	 138	 0.00444643	 0.0351083	 0.0127807	 207.55	 207.55	 207.55	 0.0	 0.0	 1	 -5.51823462005	 5.51823462005;
	73	 72	 0.00533244	 0.0343247	 0.0255959	 220.8	 220.8	 220.8	 0.0	 0.0	 1	 -5.51823462005	 5.51823462005;
	73	 147	 0.00440739	 0.0228773	 0.164518	 299.52	 299.52	 299.52	 0.0	 0.0	 1	 -5.51823462005	 5.51823462005;
	74	 96	 0.00818286	 0.0350286	 0.0519578	 247.19	 247.19	 247.19	 0.0	 0.0	 1	 -5.51823462005	 5.51823462005;
	74	 267	 0.00959142	 0.0610596	 0.0235834	 231.57	 231.57	 231.57	 0.0	 0.0	 1	 -5.51823462005	 5.51823462005;
	75	 8	 0.00464284	 0.0333214	 0.0209588	 200.72	 200.72	 200.72	 0.0	 0.0	 1	 -5.51823462005	 5.51823462005;
	75	 358	 0.0102235	 0.0653	 0.0229694	 188.8	 188.8	 188.8	 0.0	 0.0	 1	 -5.51823462005	 5.51823462005;
	76	 87	 0.00734959	 0.0479733	 0.0311735	 229.57	 229.57	 229.57	 0.0	 0.0	 1	 -5.51823462005	 5.51823462005;
	76	 98	 0.00991719	 0.0433979	 0.0140715	 204.48	 204.48	 204.48	 0.0	 0.0	 1	 -5.51823462005	 5.51823462005;
	77	 79	 0.00410741	 0.0215648	 0.0277571	 211.27	 211.27	 211.27	 0.0	 0.0	 1	 -5.51823462005	 5.51823462005;
	77	 107	 0.0117458	 0.0474083	 0.0162089	 218.26	 218.26	 218.26	 0.0	 0.0	 1	 -5.51823462005	 5.51823462005;
	78	 107	 0.0111029	 0.0647119	 0.0107653	 206.24	 206.24	 206.24	 0.0	 0.0	 1	 -5.51823462005	 5.51823462005;
	78	 175	 1e-07	 0.03	 0.0	 99999.0	 99999.0	 99999.0	 0.0	 0.0	 1	 -5.51823462005	 5.51823462005;
	79	 78	 0.00255254	 0.0159622	 0.00899812	 203.0	 203.0	 203.0	 0.0	 0.0	 1	 -5.51823462005	 5.51823462005;
	79	 107	 0.00331842	 0.0132353	 0.0146141	 250.46	 250.46	 250.46	 0.0	 0.0	 1	 -5.51823462005	 5.51823462005;
	80	 348	 0.00704419	 0.0429071	 0.0164992	 208.58	 208.58	 208.58	 0.0	 0.0	 1	 -5.51823462005	 5.51823462005;
	81	 83	 0.00531978	 0.0288681	 0.0129334	 207.61	 207.61	 207.61	 0.0	 0.0	 1	 -5.51823462005	 5.51823462005;
	81	 166	 0.00541342	 0.0336256	 0.0795896	 293.17	 293.17	 293.17	 0.0	 0.0	 1	 -5.51823462005	 5.51823462005;
	81	 229	 0.00312946	 0.0211726	 0.124132	 215.36	 215.36	 215.36	 0.0	 0.0	 1	 -5.51823462005	 5.51823462005;
...